18
Ord_Energy   -42.1440620
O    29.0732384      -16.6763306      -1.22730088
H    29.2906914      -17.5172520      -1.62590432
H    28.1320190      -16.5414810      -1.40549564
O    28.2625008      -12.3497725     -0.569479108
H    27.4221172      -12.7306175     -0.269007921
H    28.2131977      -11.4175892     -0.373192340
O    26.6080246      -15.4171085      -2.03682137
H    27.3869057      -14.8383951      -2.02898717
H    26.4840031      -15.5677900      -2.98067236
O    27.5374889      -15.1372786      -4.69091272
H    27.4648781      -14.5409946      -5.43282938
H    28.1838760      -14.7286291      -4.09430838
O    25.8952332      -13.6942015       3.83790992E-02
H    25.9509869      -14.3638506     -0.661013603
H    25.5402527      -14.1440601      0.801776350
O    29.0908909      -14.1467657      -2.50204635
H    29.3951683      -14.9326277      -2.02787876
H    28.9552536      -13.4450827      -1.84786665
