18
Ord_Energy   -44.5309334
O    21.9392490       1.12643886       25.2345486
H    22.5615597       1.42698920       25.9182663
H    21.2629910      0.634988964       25.6922817
O    23.7528725       2.10804462       27.0428905
H    24.4787369       2.52452254       26.5641441
H    23.5115051       2.77989769       27.6932659
O    23.9547710       4.84154940       23.9137363
H    23.4736176       4.06878710       23.5737057
H    23.3878841       5.59169722       23.7519493
O    23.8315125       4.59687090       28.3791714
H    24.4470234       4.60665989       27.6298943
H    24.3362694       4.90355682       29.1294556
O    25.4889183       4.22060299       26.0764999
H    26.4014645       4.27886057       25.8074093
H    24.9579716       4.46814346       25.2995396
O    22.5763817       2.63983917       23.0404415
H    22.3013687       2.09072876       23.7936363
H    22.5959682       2.05723834       22.2857761
