18
Ord_Energy   -42.8808365
O    18.2901783       7.85986233       28.3939476
H    17.7654533       7.90819693       27.5887203
H    17.9796848       7.07031727       28.8587246
O    16.9291286       5.10679340       26.4482212
H    17.4647255       5.05341530       27.2460575
H    17.2486763       5.88792992       25.9763641
O    17.3056641       5.44663906       29.4377136
H    17.4537678       4.80068636       30.1234608
H    16.3736115       5.35792208       29.1767197
O    14.8441067       5.14023209       28.2401237
H    13.9938097       5.45327997       27.9443703
H    15.4078989       5.09576511       27.4485207
O    17.9457951       7.50967741       25.3986893
H    18.8765163       7.57763433       25.6708088
H    17.8410282       8.09780693       24.6554546
O    20.3973026       7.74905109       26.6341095
H    21.2180824       8.16782570       26.8777885
H    19.8203449       7.81023693       27.4150639
