18
Ord_Energy   -44.5262260
O    23.3009357       5.77641535       24.7084408
H    22.9133587       6.55612230       25.0970383
H    24.2167778       6.01112890       24.4706802
O    22.6319332       4.43982029       22.2742004
H    22.7658386       4.92006254       23.1049366
H    21.7210217       4.58055305       22.0273762
O    25.5757580       4.47225380       21.9044800
H    24.6844769       4.66711521       21.5979099
H    25.4717827       3.62313318       22.3606091
O    25.8365116       6.29930496       23.9193783
H    25.8667793       5.68086815       23.1687927
H    26.7317314       6.37354708       24.2383137
O    24.4355488       2.30009890       23.2181911
H    24.3685818       2.46646404       24.1682110
H    23.6959724       2.78462815       22.8319798
O    23.9769363       3.24286580       25.8522015
H    23.7028923       4.12566328       25.5663280
H    23.4218597       3.02414894       26.5975742
