18
Ord_Energy   -42.1350937
O    19.2198734       12.1584301       18.7528191
H    18.6472187       12.9180040       18.6766968
H    19.8691616       12.3842649       19.4377441
O    21.0382881       12.4728975       20.8423443
H    21.9242287       12.7732296       21.0303516
H    20.9808960       11.5726719       21.1985741
O    20.8098602       7.47640800       19.8076477
H    20.1169758       8.03064251       19.4153957
H    21.3024025       7.12558270       19.0691586
O    20.5178986       9.78793907       21.3949070
H    19.9746075       9.90759087       20.6000023
H    20.9389381       8.93844032       21.2185497
O    17.6869583       9.32292843       21.7128849
H    18.6163063       9.46052933       21.9433231
H    17.4080620       8.56182671       22.2188702
O    18.8463459       9.43988895       19.1363754
H    18.8884258       10.3661118       18.8557281
H    18.1916351       9.38205624       19.8460197
