18
Ord_Energy   -43.0370140
O    22.1518307       8.55395985       19.4957848
H    21.6803284       9.05471420       18.8127499
H    21.5656929       8.53010082       20.2492905
O    23.8113651       9.48562527       15.9953632
H    22.9079056       9.76545429       16.2060528
H    23.7240601       8.64314938       15.5541153
O    21.1099014       13.0962477       18.0550804
H    22.0011616       13.1488886       18.4381599
H    20.5967751       13.7713366       18.4911442
O    24.2371998       10.2533836       18.6646309
H    24.3711262       9.94136238       17.7580891
H    23.7326221       9.56684589       19.1233006
O    23.6994991       12.9508781       19.0866852
H    24.4891567       13.4845896       19.0381699
H    23.9991817       12.0310402       19.0131416
O    21.6018600       10.4403486       17.4771194
H    22.4678383       10.5153208       17.9036369
H    21.2233524       11.3266878       17.5572529
