18
Ord_Energy   -43.4918518
O    3.59786963      -3.90119982       24.1620140
H    2.85993886      -4.45666981       23.8647957
H    3.38336635      -3.63092971       25.0642433
O    1.40282011      -5.15167809       22.9925613
H    1.08893287      -5.95175743       22.5780983
H    1.22099018      -4.43545628       22.3656635
O    1.32247877      -2.88738275       21.3044357
H    1.03779626      -2.57559705       20.4496918
H    2.29575062      -2.86754513       21.2970581
O    2.45299864      -2.65436721       26.4051609
H    2.00508237      -2.17145729       25.6921310
H    2.66086173      -1.99948263       27.0676479
O    4.06202745      -2.96969318       21.6174240
H    4.08030224      -3.35484934       22.5097198
H    4.86228085      -2.45724487       21.5356750
O    1.81208217      -1.57735407       23.9134941
H    1.33317995      -1.78943229       23.1072121
H    2.56620097      -2.18136573       23.8877831
