18
Ord_Energy   -42.9873581
O    22.8381634       7.19437647       26.8287849
H    23.5463963       6.52903509       26.8668537
H    22.2695427       7.02014208       27.5733452
O    26.5188046       9.67309189       25.5446358
H    25.5738926       9.53734112       25.3756790
H    26.5686779       10.1144581       26.3897038
O    23.8685551       8.79668808       24.8809166
H    23.4303417       8.28352070       25.5813751
H    23.1814022       9.09453964       24.2907181
O    25.0358562       5.56262302       26.7024879
H    25.6001797       6.23543072       26.3037357
H    25.0934277       4.83866549       26.0651665
O    26.1754684       7.09817743       24.5035419
H    26.6744118       7.86498976       24.8117523
H    25.2815590       7.44798756       24.3962383
O    25.7537289       4.29564190       24.2883053
H    25.9994087       5.23191357       24.2225075
H    26.5066414       3.81015253       23.9586067
