18
Ord_Energy   -41.6454659
O   -15.7840881      -10.5954323      -8.66926479
H   -16.7219982      -10.5122108      -8.51875591
H   -15.3512983      -9.91342163      -8.12452698
O   -13.6861134      -12.0597944      -5.09804296
H   -13.0769272      -11.3861408      -5.43251848
H   -14.2516718      -11.6051378      -4.47677660
O   -14.1743641      -8.94243050      -10.3864679
H   -13.6088066      -9.39708710      -11.0077353
H   -14.7835503      -9.61608410      -10.0519924
O   -12.0763893      -10.4067926      -6.81524658
H   -12.5091801      -11.0888042      -7.35998392
H   -11.1384792      -10.4900150      -6.96575594
O   -14.1986771      -8.65363884      -7.55550432
H   -13.4142179      -9.10767269      -7.22158384
H   -14.0177498      -8.46762848      -8.48763371
O   -13.6618004      -12.3485870      -7.92900658
H   -13.8427286      -12.5345974      -6.99687672
H   -14.4462605      -11.8945532      -8.26292706
