18
Ord_Energy   -43.2963905
O    24.0162716       5.03110838       24.5090237
H    23.2477932       4.65168524       24.9276505
H    24.2738228       4.40955496       23.8077316
O    26.9310741       7.39392090       27.4832478
H    27.6532059       7.60962629       28.0689487
H    26.9932747       8.02378082       26.7469463
O    27.0302105       8.59432316       24.9550819
H    26.8877640       7.65127754       24.7771549
H    26.3915672       9.05685997       24.4166756
O    26.5637779       5.82378864       25.1944160
H    25.6304054       5.60990000       25.0429268
H    26.6537457       6.13969946       26.1028214
O    25.0607224       3.32728124       22.6003532
H    25.0549049       3.22302771       21.6522446
H    25.9924660       3.44839811       22.8489552
O    27.6072578       3.91700816       23.4948139
H    27.3494053       4.61178589       24.1234417
H    28.4091930       3.53388357       23.8404121
