18
Ord_Energy   -42.1437454
O    18.1169224      -11.0032263      -16.7672863
H    18.3164158      -11.7022333      -17.4049702
H    17.5809746      -11.4159985      -16.0760593
O    16.5123634      -10.1024914      -18.7771187
H    17.0863190      -10.2391071      -18.0006886
H    16.6577225      -9.20729160      -19.0701637
O    14.0777445      -10.6082611      -14.7912645
H    13.6711588      -9.75283051      -14.6829996
H    14.0312853      -10.8124971      -15.7407389
O    16.3011551      -12.2304869      -14.9984150
H    16.2598591      -12.9591656      -14.3843021
H    15.5725517      -11.6333885      -14.7608538
O    14.5112762      -11.5410252      -17.3548927
H    15.1296282      -12.1244984      -16.9025917
H    15.0597258      -11.0052233      -17.9424133
O    17.9714718      -12.5635881      -19.1366196
H    17.3956280      -11.7998075      -19.2840481
H    18.3784752      -12.7461786      -19.9808636
