18
Ord_Energy   -41.8953362
O   -5.33943319      -2.65064764      -1.47999406
H   -4.39789343      -2.45471096      -1.44902241
H   -5.76931572      -1.82127166      -1.73526418
O   -6.61495590      -9.48459283E-02  -1.84634805
H   -5.95665646      0.596258581      -1.66433597
H   -7.25684166      0.292920709      -2.43522000
O   -4.66945505       1.71077800      -1.11526132
H   -4.54755497       2.61146998     -0.827234626
H   -4.27056932       1.15322316     -0.425236404
O   -3.70993638      -8.66098031E-02  0.719458997
H   -4.55199194     -0.513620138      0.939105570
H   -3.21031141     -0.741100669      0.221206114
O   -2.46309757      -1.99916673      -1.12989938
H   -1.92020714      -2.75371504     -0.898993075
H   -2.01972008      -1.56917667      -1.86231995
O   -6.21800423      -1.34483969      0.859021604
H   -5.94056416      -2.05570889      0.263105720
H   -6.68979883     -0.746316135      0.271522790
