18
Ord_Energy   -42.1690674
O    11.6239176      -44.3010330      -23.0392284
H    10.9627151      -43.9957275      -22.4239674
H    12.2666559      -43.5779724      -23.1371670
O    10.6790771      -47.7371254      -25.1633472
H    10.5996017      -48.3294373      -25.9089317
H    10.9168816      -46.8787193      -25.5397282
O    13.4494324      -42.3345947      -23.6174507
H    13.4908762      -42.4249420      -24.5837917
H    14.3368139      -42.1259422      -23.3355255
O    12.9911242      -46.8927078      -23.6643372
H    12.6095343      -46.1312294      -23.2106667
H    12.2329884      -47.4186211      -23.9531212
O    13.3938990      -42.8856163      -26.3283501
H    13.2125025      -42.5553284      -27.2046108
H    12.9319611      -43.7360420      -26.2607327
O    12.0177155      -45.2217216      -25.6718998
H    11.6260748      -44.7884598      -24.8990898
H    12.6439447      -45.8428917      -25.2710171
