18
Ord_Energy   -42.6620064
O    23.6215668       1.59355235       21.0833454
H    22.7174530       1.35767448       20.8955135
H    23.6502457       2.56603241       21.1496639
O    26.0854225       1.54374027       19.6371937
H    25.1977615       1.45379341       20.0129681
H    26.3521748      0.663056314       19.3820629
O    25.4283752       1.54268515       23.3365803
H    24.7639408       1.41194427       22.6452713
H    24.9368992       1.66764462       24.1462250
O    26.2418690       5.84074688       20.4296494
H    26.7891865       6.56547976       20.7241554
H    26.6226273       5.04984808       20.8405781
O    24.1326427       4.22259903       21.4564934
H    24.4245625       4.97340155       20.9281769
H    24.9725475       3.88253140       21.7962933
O    26.8491268       3.31882834       21.6675930
H    26.6194458       2.73462963       22.4017334
H    26.7463131       2.76974297       20.8753815
