18
Ord_Energy   -42.2946434
O    13.0161457      -40.2823563      -23.7593479
H    12.2575741      -40.0056953      -23.2485771
H    13.4592867      -40.9504204      -23.2170811
O    13.5561609      -42.5081291      -25.4585018
H    12.7350969      -42.9951286      -25.6099339
H    13.2941828      -41.6171150      -25.1889286
O    11.2187691      -46.0645103      -23.8295765
H    11.3642025      -45.3533096      -23.1831169
H    10.8825006      -46.8069992      -23.3351879
O    14.2490568      -42.7125664      -22.8284130
H    15.1517439      -42.9485703      -22.6340599
H    14.1422415      -42.7851601      -23.7946148
O    11.0821724      -43.8793488      -25.5085411
H    11.1187372      -44.7499886      -25.0784855
H    10.3044882      -43.8858528      -26.0607262
O    11.5754089      -43.6263275      -22.5730286
H    11.2978277      -43.3379669      -23.4500866
H    12.5018549      -43.3599892      -22.5018158
