18
Ord_Energy   -43.8324203
O    22.5139256       6.00483418       13.9567747
H    21.9920216       5.43044043       13.4018373
H    22.0275555       6.08664179       14.7937822
O    21.4619713       5.99427891       16.5133877
H    22.0864563       5.26396227       16.6190701
H    21.9089241       6.72111130       16.9670086
O    24.2416248       9.51985073       15.8474655
H    24.2861004       9.07191658       14.9865484
H    24.0492020       10.4344158       15.6575699
O    24.1026840       4.95645142       16.3509464
H    23.9176197       5.17070818       15.4314461
H    24.0999546       5.80932426       16.8065338
O    23.5777454       7.55806637       17.6324711
H    23.8632946       7.80762196       18.5075722
H    23.8313198       8.28714275       17.0424728
O    24.2612000       8.10689545       13.4898415
H    24.9428768       7.78579760       12.9042778
H    23.6297379       7.37749720       13.5925951
