18
Ord_Energy   -44.5732536
O    26.3957081       3.18149281       23.8688087
H    25.5933342       2.73279619       23.5525417
H    27.1164932       2.81901550       23.3616047
O    24.0465469       1.99117315       23.1159420
H    23.8149090       1.11771679       23.4568615
H    23.3078365       2.53770423       23.4078560
O    21.7218781       2.78920817       24.6493492
H    20.9167061       3.25493526       24.4402790
H    22.1501656       3.28413057       25.3686237
O    23.0108032       4.15853024       26.6220016
H    22.9849224       4.23035717       27.5724697
H    23.9070740       4.42723703       26.3593273
O    22.6008129       6.44778237E-02   24.5948505
H    22.1912632      0.938114047       24.6916046
H    22.7787800     -0.232814580       25.4848824
O    25.5377579       4.87623882       25.8421192
H    25.8907471       4.27567005       25.1644020
H    25.9985008       5.70262241       25.7224140
