18
Ord_Energy   -43.7666702
O    26.5047264       11.6212120       21.4018402
H    26.6885986       11.8625164       20.4891491
H    27.1814804       10.9665737       21.6224022
O    28.3385048       9.34435749       21.6669445
H    29.1337681       9.64748955       21.1980801
H    28.6432400       8.88034534       22.4424458
O    29.3953419       11.0710421       17.8674526
H    29.5266628       10.8366108       16.9519062
H    28.4354687       11.1437063       17.9896965
O    25.9401550       9.16636181       20.1033344
H    25.6728764       9.92190647       20.6444855
H    26.7748489       8.90037632       20.5109196
O    30.4853268       10.3077707       20.2730770
H    31.2267056       10.8780622       20.4602394
H    30.1562309       10.5774879       19.3998032
O    26.6680870       11.1660213       18.3438168
H    26.4021416       10.3735914       18.8392754
H    25.8864994       11.4744062       17.8917809
