18
Ord_Energy   -42.5741119
O    22.6951637       10.1095886       15.4717684
H    23.0523109       10.5786133       16.2408180
H    21.8207722       9.80276680       15.7508192
O    24.3941708       11.1775370       17.5333614
H    24.6688404       11.6745071       16.7497864
H    24.7779293       10.2978487       17.4286098
O    24.4405975       8.32925797       16.8006306
H    23.8512058       8.75673389       16.1593513
H    24.9168644       7.65621614       16.3212147
O    24.6185207       12.0681906       14.8607168
H    23.9243393       11.4008970       14.7502499
H    24.3378258       12.8205900       14.3439331
O    22.5411415       9.27035809       18.7687302
H    23.1438713       8.67707729       18.3016796
H    22.9830418       10.1258812       18.7266884
O    20.4928780       9.22302723       16.8723793
H    21.0824947       9.21138191       17.6441307
H    19.6058350       9.16670227       17.2169247
