18
Ord_Energy   -43.6961441
O    27.0318851       2.28494263       20.4646816
H    27.8720055       2.37781429       20.0233002
H    27.2003956       2.46394992       21.4048595
O    27.1120682       2.40543365       23.2109013
H    27.3291702       1.91811275       24.0158463
H    26.1574936       2.57312989       23.2534161
O    27.2881203      0.398932964       25.1814556
H    26.9047813     -0.105834290       24.4459858
H    27.9494553     -0.171173081       25.5672150
O    24.3235493       2.51956129       23.0500813
H    24.2802429       1.96477020       22.2570152
H    23.7439423       2.10788512       23.6883125
O    24.6570225      0.915778637       20.7318001
H    24.1954899      0.774479210       19.9095917
H    25.4799461       1.38619125       20.5097504
O    26.4354935     -0.405944765       22.6582813
H    25.7074013     -0.318057299       22.0358448
H    26.8336010      0.474823952       22.6565361
