18
Ord_Energy   -42.3525467
O    26.5431919       11.6228762       18.3547077
H    26.1251488       10.7969208       18.6519489
H    26.7081051       12.1356449       19.1418056
O    24.9530525       9.38908100       18.5514145
H    24.7704086       9.64578438       17.6403942
H    24.3324928       8.67519188       18.7552147
O    22.2349720       11.7258978       16.6237888
H    23.1605549       11.5797253       16.3768692
H    21.9683418       12.5273647       16.1796532
O    22.2386532       10.4869251       19.1372623
H    23.1982384       10.4468203       19.2068233
H    22.0734539       10.9353333       18.2953873
O    24.9502239       11.1597242       16.1552944
H    25.5557823       11.4824219       16.8435345
H    25.4929104       10.9365616       15.4026699
O    22.7593765       7.77174950       19.0864601
H    22.3285542       7.25853634       19.7652397
H    22.3401890       8.64858150       19.1095562
