18
Ord_Energy   -41.5943642
O    20.2628708      -37.9340897      -17.4234314
H    19.3988152      -38.3192291      -17.2381802
H    20.7904606      -38.6553040      -17.8079967
O    21.9989872      -39.1178703      -15.4404650
H    21.4019585      -38.5269089      -15.9204044
H    22.7372684      -38.5712814      -15.1768951
O    17.5790977      -39.0517120      -17.9313622
H    16.7612362      -38.7412224      -17.5505390
H    17.8151512      -38.4192886      -18.6304302
O    19.1002426      -41.4293709      -18.1159763
H    18.5866222      -42.1615067      -18.4489498
H    18.4908123      -40.6787758      -18.0622482
O    21.6397552      -40.2194862      -18.0807838
H    21.9248714      -40.1760368      -17.1591263
H    20.8451481      -40.7731667      -18.0965710
O    18.6876507      -37.1547089      -19.6040115
H    19.4035473      -37.2080650      -18.9511681
H    19.1134129      -37.1190300      -20.4576817
