18
Ord_Energy   -43.2038078
O    22.8069935       6.06273413       25.4461708
H    22.9670467       6.70083332       24.7380428
H    22.9539185       6.53980350       26.2708988
O    24.3286438       7.02773190       27.7549992
H    24.4357929       6.87981510       28.6921215
H    24.8574581       6.34675455       27.3152905
O    25.5514393       5.47351122       25.5956993
H    25.8235989       6.40187311       25.5121212
H    24.5861263       5.46802521       25.4897022
O    25.7136459       8.27481365       25.4919434
H    25.0729046       8.29551792       24.7686291
H    25.1951809       8.24853897       26.3041744
O    25.4466286       5.57382870       22.7799492
H    25.6393070       5.35697031       23.7046375
H    25.6141777       4.77760983       22.2819557
O    23.8484364       7.75057030       23.3550415
H    23.5379677       8.22935295       22.5910835
H    24.3922863       7.01611090       23.0218372
