18
Ord_Energy   -44.2384186
O    24.1622295       5.44805050       27.5700550
H    24.5052204       6.04653692       26.8961830
H    24.6319904       4.62268639       27.3975334
O    24.0459824       3.89832807       24.1294880
H    23.0971375       3.87774086       24.3291016
H    24.2893047       4.82698488       24.0873814
O    25.7014503       6.19363117       25.2442551
H    26.5202465       6.63987112       25.0401669
H    25.9512863       5.31259155       25.5640469
O    21.4387856       5.06573772       27.3787804
H    21.0014992       5.45074987       28.1331520
H    22.3879128       5.22601604       27.5103359
O    25.7618580       3.49224973       26.1877003
H    25.1202641       3.45584798       25.4542961
H    26.2143154       2.65412235       26.1965694
O    21.3876820       3.93811798       24.8657055
H    20.5183582       3.59823179       24.6719952
H    21.3318768       4.33074474       25.7523212
