18
Ord_Energy   -42.5807877
O    24.6355896       9.43420887       19.9558411
H    25.0089855       9.13595200       19.1108036
H    25.2671928       10.0490875       20.3222237
O    26.0243587       11.1939402       16.8856544
H    26.4857998       11.3803406       16.0705814
H    26.0193367       10.2272959       16.9673462
O    25.2881794       8.53615570       17.3647060
H    25.1067543       7.59554291       17.4997444
H    24.4424534       8.97117805       17.1797466
O    23.4614754       6.94085693       20.4512844
H    23.8273315       7.83818674       20.4135609
H    22.5727100       7.03434515       20.7867661
O    23.3049240       10.5191975       17.4684162
H    23.3712254       10.4013872       18.4211349
H    24.0990009       11.0170479       17.2249851
O    24.6023579       5.97329235       18.1085262
H    24.1651592       6.19486380       18.9465809
H    24.9043732       5.07315493       18.1981659
