18
Ord_Energy   -41.5934715
O    15.8440857       5.83839178       24.9597244
H    15.5475016       4.91678572       24.9744987
H    16.5959530       5.86320210       24.3724289
O    14.2376690       4.28155327       27.9732742
H    14.2646503       5.22839975       27.7509460
H    14.7198400       3.83725190       27.2664375
O    14.8428869       3.21156526       25.2957516
H    13.8806753       3.24579215       25.4287891
H    15.0508652       2.30887032       25.0675774
O    12.2399073       3.45249820       26.1852417
H    12.6942577       3.75760746       26.9862099
H    11.5283833       4.07158804       26.0359535
O    14.8017282       6.89798927       27.3487663
H    15.4881687       6.78806257       28.0191593
H    15.2117472       6.68063307       26.4985580
O    16.2958126       5.64364147       29.4704018
H    15.6481085       4.99876022       29.1528244
H    16.1086922       5.75191069       30.4012985
