18
Ord_Energy   -41.7508125
O   -30.7851715      -32.3274117       13.0166521
H   -31.2311249      -33.0457344       13.4866257
H   -31.5028210      -31.8069172       12.6305866
O   -30.1750793      -33.7433167       10.7354965
H   -30.2351189      -33.2170448       11.5519285
H   -29.4976711      -33.3292389       10.2078857
O   -34.1087837      -35.4364510       8.75888157
H   -34.5350876      -34.9529610       8.05070305
H   -34.0173492      -36.3335648       8.43740654
O   -33.1740799      -31.4703274       11.7162027
H   -33.1745682      -32.3910561       11.4124002
H   -33.9492378      -31.3848267       12.2684631
O   -32.4108887      -34.5391121       13.7610579
H   -32.6649513      -34.5201912       12.8249826
H   -32.1465225      -35.4395790       13.9370823
O   -32.8782005      -34.2010460       11.0004807
H   -33.3057938      -34.6388817       10.2579069
H   -31.9345760      -34.1142311       10.7882538
