18
Ord_Energy   -44.7779961
O    23.9363976       2.90609050       27.3465900
H    23.5385342       3.77560234       27.4762707
H    24.8418579       3.02716351       27.6484203
O    23.7180653       5.80806398       27.6283436
H    23.8321629       5.96007729       26.6728992
H    23.0602036       6.42840719       27.9286041
O    24.4273567       3.25161004       24.5484676
H    25.3372517       3.55828929       24.6427250
H    24.1727257       2.94977379       25.4309311
O    24.2626553       5.99475670       24.9719219
H    24.0260220       5.09967947       24.6842804
H    25.2254772       5.98413420       24.9354477
O    26.2570724       4.69449663       27.9986038
H    26.6165142       4.85278940       28.8680401
H    25.3966961       5.14498997       27.9706535
O    26.8954868       4.75661421       25.2645226
H    26.7884617       4.70717573       26.2271442
H    27.8330193       4.70687294       25.0949516
