18
Ord_Energy   -42.1858215
O    28.4577541      -13.9057913      -10.5055742
H    28.1434078      -14.5723495      -9.87425900
H    28.8412571      -13.2066746      -9.98217487
O    28.6598587      -15.3183565      -12.8805103
H    27.7467785      -15.3787794      -13.1935015
H    28.6663227      -14.6939011      -12.1397934
O    27.7481861      -17.5155411      -11.3471079
H    28.0275517      -16.6479187      -11.6800737
H    28.3562241      -18.1067867      -11.8054695
O    25.9734249      -16.1647625      -13.1577759
H    26.3123512      -16.8404446      -12.5539942
H    25.2194157      -15.7805872      -12.7133350
O    27.5661297      -16.0634174      -8.98206806
H    27.5857792      -16.7251930      -9.69134045
H    27.6587868      -16.5504971      -8.16706657
O    29.8031082      -17.9241085      -13.2336397
H    29.9506378      -18.1512222      -14.1490231
H    29.5795135      -16.9805145      -13.2354269
