18
Ord_Energy   -43.4790649
O    21.3195496       6.75811911       15.8860550
H    21.4929104       5.82413960       16.0820160
H    21.6862640       6.92047644       15.0072680
O    22.0879974       4.23032618       16.7861652
H    21.6578884       3.47099042       17.1730595
H    22.6778736       4.57969952       17.4713917
O    21.5313759       7.48635817       18.5283718
H    21.3474083       8.41001892       18.6805820
H    21.2819004       7.31292439       17.6050968
O    23.0717049       7.12295341       13.7133970
H    23.7062969       7.15262365       14.4471865
H    23.4305687       6.49657631       13.0887356
O    23.5917225       5.66020632       18.7025013
H    23.9854431       5.60035276       19.5686893
H    22.8886852       6.33081055       18.7627926
O    24.1933613       7.23875046       16.2700768
H    23.2280502       7.28648472       16.2789497
H    24.3916245       6.68540716       17.0307617
