18
Ord_Energy   -43.1637535
O    22.9477291       7.78499365       28.2148514
H    22.8032665       7.23321390       28.9804878
H    23.7435875       8.30488014       28.4121284
O    25.6691303       5.02045679       25.3474407
H    25.6855831       5.13687611       24.3826771
H    26.4489269       4.51578474       25.5640545
O    25.6151142       5.65683270       22.6594753
H    25.3168468       5.34602261       21.8087349
H    25.2579937       6.55536461       22.7567978
O    25.4568958       9.02650166       28.1095886
H    25.8256969       9.87889481       27.8896999
H    25.3799782       8.54738617       27.2689419
O    24.5656147       7.47081327       25.9497242
H    23.8442822       7.42443466       26.5911102
H    24.9383583       6.58185387       25.8500881
O    24.5526009       8.13649750       23.2690945
H    24.5138416       7.99819231       24.2301674
H    23.9020061       8.80549526       23.0735359
