18
Ord_Energy   -44.4484749
O    22.6079788       5.73007727       24.8742561
H    22.0534630       6.34428501       24.4014072
H    23.0567856       5.19654512       24.1969452
O    23.8849487       4.07401657       23.0969276
H    23.6011047       3.16380787       23.2379513
H    24.8424854       4.02262306       23.2183208
O    24.0453930       1.29688036       23.9570236
H    23.6532497       1.37961042       24.8435841
H    23.7253342      0.474816114       23.5959625
O    22.9172497       1.62909913       26.4121532
H    22.9596691       2.55833268       26.6936684
H    22.3805561       1.18506312       27.0630264
O    26.3806400       2.93492723       23.7329464
H    25.6851292       2.27071023       23.8578701
H    27.0828457       2.48744941       23.2660370
O    23.0366287       4.26594210       27.1514988
H    23.7203579       4.72658825       27.6319466
H    22.8393993       4.82167768       26.3790398
