18
Ord_Energy   -42.3076630
O    26.5375710      -15.2211771      -4.90425587
H    26.8713112      -15.3660183      -4.00865841
H    27.0169830      -14.4546671      -5.24761152
O    27.8737526      -15.7203064      -2.46492624
H    27.9869957      -15.2895880      -1.62136316
H    28.0843925      -16.6580086      -2.32166290
O    28.8382492      -18.3045025      -2.43045425
H    28.6990223      -19.2324390      -2.60000396
H    29.3336334      -17.9610329      -3.19292283
O    29.8530159      -16.7218666      -4.46353054
H    29.3787746      -16.0676155      -3.93755913
H    29.3682671      -16.7716064      -5.29806423
O    28.1046448      -16.5563431      -6.69289303
H    27.6526928      -17.0349331      -7.38214350
H    27.4191208      -16.2341919      -6.07923841
O    28.4644470      -13.7130451      -6.36694622
H    29.3635864      -13.4434948      -6.18844748
H    28.5288296      -14.6270838      -6.67808008
