15
Ord_Energy   -36.8031731
O   -20.7594128      -24.0895691       3.88183022
H   -21.6905289      -23.8826752       3.88270950
H   -20.7021942      -25.0491791       4.02306557
O   -18.6084576      -23.3396721       2.34043407
H   -18.2194557      -22.5733280       2.75352621
H   -19.3794937      -23.5694160       2.88526416
O   -20.5508404      -26.8170109       4.15873528
H   -20.1688957      -27.1572647       3.33261776
H   -20.2499294      -27.4058170       4.84610844
O   -17.8668137      -25.5782738      0.921027958
H   -17.0456848      -25.3886318      0.475335151
H   -18.1088390      -24.7646561       1.39358938
O   -19.4150524      -27.6699314       1.80430472
H   -18.8408661      -26.9582958       1.47536361
H   -19.7511730      -28.1123009       1.02900028
