15
Ord_Energy   -36.8034706
O   -3.93995786      -6.02473640      -4.19686174
H   -4.41532040      -5.38339520      -3.64293528
H   -3.29476976      -6.43370008      -3.62572241
O   -5.71987057      -6.92075539      -6.09102821
H   -5.39293385      -6.62485600      -6.93681431
H   -5.05957127      -6.63418388      -5.43836641
O   -5.39236927      -4.27045631      -2.65621853
H   -5.43818569      -3.31938314      -2.60007453
H   -6.31298447      -4.58120203      -2.64279056
O   -8.17880344      -6.92018938      -4.85751724
H   -7.32549715      -6.93354082      -5.32201433
H   -8.64264011      -7.70174980      -5.14577150
O   -7.98111868      -5.19075632      -2.72607112
H   -8.71193218      -5.36292696      -2.13845968
H   -8.09375000      -5.79624271      -3.47749949
